gem5 Simulator System.  http://gem5.org
gem5 is copyrighted software; use the --copyright option for details.

gem5 compiled Nov 12 2019 13:56:04
gem5 started Nov 20 2019 08:43:35
gem5 executing on pavfrang, pid 3428
command line: ./build/ARM/gem5.opt -d bubble_sort_minorcpu configs/example/se.py --cpu-type=MinorCPU --caches -c tests/my_progs/bubble_sort_arm

Global frequency set at 1000000000000 ticks per second
**** REAL SIMULATION ****
Unsorted array:
83 86 77 15 93 35 86 92 49 21 62 27 90 59 63 26 40 26 72 36 11 68 67 29 82 30 62 23 67 35 29 2 22 58 69 67 93 56 11 42 29 73 21 19 84 37 98 24 15 70 13 26 91 80 56 73 62 70 96 81 5 25 84 27 36 5 46 29 13 57 24 95 82 45 14 67 34 64 43 50 87 8 76 78 88 84 3 51 54 99 32 60 76 68 39 12 26 86 94 39 
Sorted array:
2 3 5 5 8 11 11 12 13 13 14 15 15 19 21 21 22 23 24 24 25 26 26 26 26 27 27 29 29 29 29 30 32 34 35 35 36 36 37 39 39 40 42 43 45 46 49 50 51 54 56 56 57 58 59 60 62 62 62 63 64 67 67 67 67 68 68 69 70 70 72 73 73 76 76 77 78 80 81 82 82 83 84 84 84 86 86 86 87 88 90 91 92 93 93 94 95 96 98 99 
Exiting @ tick 218400000 because exiting with last active thread context
gem5 Simulator System.  http://gem5.org
gem5 is copyrighted software; use the --copyright option for details.

gem5 compiled Nov 12 2019 13:56:04
gem5 started Nov 20 2019 08:43:41
gem5 executing on pavfrang, pid 3430
command line: ./build/ARM/gem5.opt -d bubble_sort_timingsimplecpu configs/example/se.py --cpu-type=TimingSimpleCPU --caches -c tests/my_progs/bubble_sort_arm

Global frequency set at 1000000000000 ticks per second
**** REAL SIMULATION ****
Unsorted array:
83 86 77 15 93 35 86 92 49 21 62 27 90 59 63 26 40 26 72 36 11 68 67 29 82 30 62 23 67 35 29 2 22 58 69 67 93 56 11 42 29 73 21 19 84 37 98 24 15 70 13 26 91 80 56 73 62 70 96 81 5 25 84 27 36 5 46 29 13 57 24 95 82 45 14 67 34 64 43 50 87 8 76 78 88 84 3 51 54 99 32 60 76 68 39 12 26 86 94 39 
Sorted array:
2 3 5 5 8 11 11 12 13 13 14 15 15 19 21 21 22 23 24 24 25 26 26 26 26 27 27 29 29 29 29 30 32 34 35 35 36 36 37 39 39 40 42 43 45 46 49 50 51 54 56 56 57 58 59 60 62 62 62 63 64 67 67 67 67 68 68 69 70 70 72 73 73 76 76 77 78 80 81 82 82 83 84 84 84 86 86 86 87 88 90 91 92 93 93 94 95 96 98 99 
Exiting @ tick 531754000 because exiting with last active thread context
